data/crac-file/crac-impl/src/test/resources/TestCase12Nodes.uct
##C 2007.05.01
Generated by Convergence, RTE's network analysis tool (2014.01.14 18:43)
Informations      : 20140116_0830_2D4_UX0.uct; Topological Merging; Vulcanus Adjustement ( 2014/01/15 08:30 )
Date of situation : 2014/01/16 08:30
Merged files:
  20140116_0830_2D4_BE0.uct
  20140116_0830_2D4_FR0.uct
  20140116_0830_2D4_DE0.UCT
  20140116_0830_2D4_NL0.uct
  20140115_0830_FO3_IT0.UCT
  20140115_0830_FO3_CH0.UCT
  20140115_0830_FO3_AT0.uct
  20140115_0830_FO3_SI1.UCT
  20140115_0830_FO3_CZ0.UCT
  20140115_0830_FO3_PL0.uct
  20140115_0830_FO3_SK0.UCT
  20140115_0830_FO3_AL0.UCT
  20140115_0830_FO3_BA0.UCT
  20140115_0830_FO3_BG0.uct
  20140115_0830_FO3_ES0.UCT
  20140115_0830_FO3_GR0.UCT
  20140115_0830_FO3_HR0.uct
  20140115_0830_FO3_HU0.uct
  20140115_0830_FO3_ME0.UCT
  20140115_0830_FO3_MK0.UCT
  20140115_0830_FO3_PT0.UCT
  20140115_0830_FO3_RO0.UCT
  20140115_0830_FO3_RS0.UCT
  20140115_1030_FO3_UA0.uct
##N
##ZBE
BBE1AA1  BE1          0 2 400.00 2500.00 0.00000 -1500.0 0.00000 9000.00 -9000.0 9000.00 -9000.0
BBE2AA1  BE2          0 2 400.00 1000.00 0.00000 -3000.0 0.00000 9000.00 -9000.0 9000.00 -9000.0
BBE3AA1  BE3          0 2 400.00 1500.00 0.00000 -2500.0 0.00000 9000.00 -9000.0 9000.00 -9000.0
##ZDE
DDE1AA1  DE1          0 2 400.00 3500.00 0.00000 -2500.0 0.00000 9000.00 -9000.0 9000.00 -9000.0
DDE2AA1  DE2          0 2 400.00 3000.00 0.00000 -2000.0 0.00000 9000.00 -9000.0 9000.00 -9000.0
DDE3AA1  DE3          0 2 400.00 2000.00 0.00000 -1500.0 0.00000 9000.00 -9000.0 9000.00 -9000.0
##ZFR
FFR1AA1  FR1          0 2 400.00 1000.00 0.00000 -2000.0 0.00000 9000.00 -9000.0 9000.00 -9000.0
FFR2AA1  FR2          0 2 400.00 3500.00 0.00000 -2000.0 0.00000 9000.00 -9000.0 9000.00 -9000.0
FFR3AA1  FR3          0 2 400.00 1500.00 0.00000 -3000.0 0.00000 9000.00 -9000.0 9000.00 -9000.0
##ZNL
NNL1AA1  NL1          0 2 400.00 1000.00 0.00000 -1500.0 0.00000 9000.00 -9000.0 9000.00 -9000.0
NNL2AA1  NL2          0 2 400.00 1000.00 0.00000 -500.00 0.00000 9000.00 -9000.0 9000.00 -9000.0
NNL3AA1  NL3          0 2 400.00 2500.00 0.00000 -2000.0 0.00000 9000.00 -9000.0 9000.00 -9000.0
##L
BBE1AA1  BBE2AA1  1 0 0.0000 10.000 0.000000   5000
BBE1AA1  BBE3AA1  1 0 0.0000 10.000 0.000000   5000
FFR1AA1  FFR2AA1  1 0 0.0000 10.000 0.000000   5000
FFR1AA1  FFR3AA1  1 0 0.0000 10.000 0.000000   5000
FFR2AA1  FFR3AA1  1 0 0.0000 10.000 0.000000   5000
DDE1AA1  DDE2AA1  1 0 0.0000 10.000 0.000000   5000
DDE1AA1  DDE3AA1  1 0 0.0000 10.000 0.000000   5000
DDE2AA1  DDE3AA1  1 0 0.0000 10.000 0.000000   5000
NNL1AA1  NNL2AA1  1 0 0.0000 10.000 0.000000   5000
NNL1AA1  NNL3AA1  1 0 0.0000 10.000 0.000000   5000
NNL2AA1  NNL3AA1  1 0 0.0000 10.000 0.000000   5000
FFR2AA1  DDE3AA1  1 0 0.0000 10.000 0.000000   5000
DDE2AA1  NNL3AA1  1 0 0.0000 10.000 0.000000   5000
NNL2AA1  BBE3AA1  1 0 0.0000 10.000 0.000000   5000
BBE2AA1  FFR3AA1  1 0 0.0000 10.000 0.000000   5000
##T
BBE2AA1  BBE3AA1  1 0 400.0 400.0 1000. 0.0000 10.000 0.000000 0.0	     5000 PST
##R
BBE2AA1  BBE3AA1  1                    -0.68 90.00 16  0        SYMM
